11
X
Gd    4.562252    1.331912    0.812708
Gd   12.944890    3.779155    2.305970
 C    0.000000    0.000000    0.000000
 C    5.494426    1.604053    3.118675
 C    5.494428    3.507009    0.000000
 C   10.988853    5.111062    3.118675
 C    6.518270    0.000000    0.000000
 C   12.012695    1.604053    3.118675
 C   12.012697    3.507009    0.000000
 C   17.507122    5.111062    3.118675
 X    8.753561    2.555531    1.559337
